
**** 12/03/17 22:16:16 ****** PSpice Lite (October 2012) ****** ID# 10813 ****

 ** Profile: "SCHEMATIC1-78"  [ D:\VE215\ex9\78-PSpiceFiles\SCHEMATIC1\78.sim ] 


 ****     CIRCUIT DESCRIPTION


******************************************************************************




** Creating circuit file "78.cir" 
** WARNING: THIS AUTOMATICALLY GENERATED FILE MAY BE OVERWRITTEN BY SUBSEQUENT SIMULATIONS

*Libraries: 
* Profile Libraries :
* Local Libraries :
* From [PSPICE NETLIST] section of C:\SPB_Data\cdssetup\OrCAD_PSpice/16.6.0/PSpice.ini file:
.lib "nomd.lib" 

*Analysis directives: 
.AC DEC 1 0.159 0.159
.OPTIONS ADVCONV
.PROBE64 V(alias(*)) I(alias(*)) W(alias(*)) D(alias(*)) NOISE(alias(*)) 
.INC "..\SCHEMATIC1.net" 



**** INCLUDING SCHEMATIC1.net ****
* source 78
V_V1         N00136 0 DC 0 AC 100 -30
R_R1         N00298 N00214  20 TC=0,0 
R_R2         0 N00162  50 TC=0,0 
R_R3         0 N00221  40 TC=0,0 
L_L1         N00214 N00221  80  
L_L2         N00166 N00221  60  
V_PRINT1         N00136 N00298 0V
          
.PRINT        AC 
+ IM(V_PRINT1) 
+ IP(V_PRINT1)    
V_PRINT2         N00166 N00162 0V
          
.PRINT        AC 
+ IM(V_PRINT2) 
+ IP(V_PRINT2)    
Kn_K1         L_L1 L_L2     0.5

**** RESUMING 78.cir ****
.END

**** 12/03/17 22:16:16 ****** PSpice Lite (October 2012) ****** ID# 10813 ****

 ** Profile: "SCHEMATIC1-78"  [ D:\VE215\ex9\78-PSpiceFiles\SCHEMATIC1\78.sim ] 


 ****     SMALL SIGNAL BIAS SOLUTION       TEMPERATURE =   27.000 DEG C


******************************************************************************



 NODE   VOLTAGE     NODE   VOLTAGE     NODE   VOLTAGE     NODE   VOLTAGE


(N00136)    0.0000 (N00162)    0.0000 (N00166)    0.0000 (N00214)    0.0000     

(N00221)    0.0000 (N00298)    0.0000 




    VOLTAGE SOURCE CURRENTS
    NAME         CURRENT

    V_V1         0.000E+00
    V_PRINT1     0.000E+00
    V_PRINT2     0.000E+00

    TOTAL POWER DISSIPATION   0.00E+00  WATTS


**** 12/03/17 22:16:16 ****** PSpice Lite (October 2012) ****** ID# 10813 ****

 ** Profile: "SCHEMATIC1-78"  [ D:\VE215\ex9\78-PSpiceFiles\SCHEMATIC1\78.sim ] 


 ****     AC ANALYSIS                      TEMPERATURE =   27.000 DEG C


******************************************************************************



  FREQ        IM(V_PRINT1)IP(V_PRINT1)


   1.590E-01   1.348E+00  -8.486E+01

**** 12/03/17 22:16:16 ****** PSpice Lite (October 2012) ****** ID# 10813 ****

 ** Profile: "SCHEMATIC1-78"  [ D:\VE215\ex9\78-PSpiceFiles\SCHEMATIC1\78.sim ] 


 ****     AC ANALYSIS                      TEMPERATURE =   27.000 DEG C


******************************************************************************



  FREQ        IM(V_PRINT2)IP(V_PRINT2)


   1.590E-01   6.592E-01  -7.766E+01


          JOB CONCLUDED

**** 12/03/17 22:16:16 ****** PSpice Lite (October 2012) ****** ID# 10813 ****

 ** Profile: "SCHEMATIC1-78"  [ D:\VE215\ex9\78-PSpiceFiles\SCHEMATIC1\78.sim ] 


 ****     JOB STATISTICS SUMMARY


******************************************************************************



  Total job time (using Solver 1)   =         .05
