
**** 11/27/17 09:36:32 ****** PSpice Lite (October 2012) ****** ID# 10813 ****

 ** Profile: "SCHEMATIC1-ex"  [ D:\VE215\ex8\ex-pspicefiles\schematic1\ex.sim ] 


 ****     CIRCUIT DESCRIPTION


******************************************************************************




** Creating circuit file "ex.cir" 
** WARNING: THIS AUTOMATICALLY GENERATED FILE MAY BE OVERWRITTEN BY SUBSEQUENT SIMULATIONS

*Libraries: 
* Profile Libraries :
* Local Libraries :
* From [PSPICE NETLIST] section of C:\SPB_Data\cdssetup\OrCAD_PSpice/16.6.0/PSpice.ini file:
.lib "nomd.lib" 

*Analysis directives: 
.AC DEC 1 60 60
.OPTIONS ADVCONV
.PROBE64 V(alias(*)) I(alias(*)) W(alias(*)) D(alias(*)) NOISE(alias(*)) 
.INC "..\SCHEMATIC1.net" 



**** INCLUDING SCHEMATIC1.net ****
* source EX
V_V1         N00217 N00119 DC 0 AC 100 120
V_V2         N00229 N00119 DC 0 AC 100 0
V_V3         N00134 N00119 DC 0 AC 100 -120
R_R1         N00134 0  40 TC=0,0 
L_L2         N00217 0  10m  
C_C1         0 N00229  0.2m  TC=0,0 
           
.PRINT         AC 
+ VM([N00134]) 
+ VP([N00134])    
           
.PRINT         AC 
+ VM([N00217]) 
+ VP([N00217])    
           
.PRINT         AC 
+ VM([N00229]) 
+ VP([N00229])    

**** RESUMING ex.cir ****
.END

**** 11/27/17 09:36:32 ****** PSpice Lite (October 2012) ****** ID# 10813 ****

 ** Profile: "SCHEMATIC1-ex"  [ D:\VE215\ex8\ex-pspicefiles\schematic1\ex.sim ] 


 ****     SMALL SIGNAL BIAS SOLUTION       TEMPERATURE =   27.000 DEG C


******************************************************************************



 NODE   VOLTAGE     NODE   VOLTAGE     NODE   VOLTAGE     NODE   VOLTAGE


(N00119)    0.0000 (N00134)    0.0000 (N00217)    0.0000 (N00229)    0.0000 




    VOLTAGE SOURCE CURRENTS
    NAME         CURRENT

    V_V1         0.000E+00
    V_V2         0.000E+00
    V_V3         0.000E+00

    TOTAL POWER DISSIPATION   0.00E+00  WATTS


**** 11/27/17 09:36:32 ****** PSpice Lite (October 2012) ****** ID# 10813 ****

 ** Profile: "SCHEMATIC1-ex"  [ D:\VE215\ex8\ex-pspicefiles\schematic1\ex.sim ] 


 ****     AC ANALYSIS                      TEMPERATURE =   27.000 DEG C


******************************************************************************



  FREQ        VM(N00134)  VP(N00134)  


   6.000E+01   2.141E+02  -8.149E+01

**** 11/27/17 09:36:32 ****** PSpice Lite (October 2012) ****** ID# 10813 ****

 ** Profile: "SCHEMATIC1-ex"  [ D:\VE215\ex8\ex-pspicefiles\schematic1\ex.sim ] 


 ****     AC ANALYSIS                      TEMPERATURE =   27.000 DEG C


******************************************************************************



  FREQ        VM(N00217)  VP(N00217)  


   6.000E+01   4.991E+01  -5.059E+01

**** 11/27/17 09:36:32 ****** PSpice Lite (October 2012) ****** ID# 10813 ****

 ** Profile: "SCHEMATIC1-ex"  [ D:\VE215\ex8\ex-pspicefiles\schematic1\ex.sim ] 


 ****     AC ANALYSIS                      TEMPERATURE =   27.000 DEG C


******************************************************************************



  FREQ        VM(N00229)  VP(N00229)  


   6.000E+01   2.206E+02  -3.456E+01


          JOB CONCLUDED

**** 11/27/17 09:36:32 ****** PSpice Lite (October 2012) ****** ID# 10813 ****

 ** Profile: "SCHEMATIC1-ex"  [ D:\VE215\ex8\ex-pspicefiles\schematic1\ex.sim ] 


 ****     JOB STATISTICS SUMMARY


******************************************************************************



  Total job time (using Solver 1)   =        0.00
