
**** 09/22/17 09:56:01 ****** PSpice Lite (October 2012) ****** ID# 10813 ****

 ** Profile: "SCHEMATIC1-test"  [ D:\VE215\ex2\ex2-pspicefiles\schematic1\test.sim ] 


 ****     CIRCUIT DESCRIPTION


******************************************************************************




** Creating circuit file "test.cir" 
** WARNING: THIS AUTOMATICALLY GENERATED FILE MAY BE OVERWRITTEN BY SUBSEQUENT SIMULATIONS

*Libraries: 
* Profile Libraries :
* Local Libraries :
* From [PSPICE NETLIST] section of C:\SPB_Data\cdssetup\OrCAD_PSpice/16.6.0/PSpice.ini file:
.lib "nomd.lib" 

*Analysis directives: 
.TRAN  0 1000ns 0 
.OPTIONS ADVCONV
.PROBE64 V(alias(*)) I(alias(*)) W(alias(*)) D(alias(*)) NOISE(alias(*)) 
.INC "..\SCHEMATIC1.net" 



**** INCLUDING SCHEMATIC1.net ****
* source EX2
V_V1         M_UN0001 M_UN0002 120
R_R1          30 TC=0,0 
--------------------$
ERROR(ORPSIM-16144): Value may not be 0
R_R2          30 TC=0,0 
--------------------$
ERROR(ORPSIM-16144): Value may not be 0
R_R3          10 TC=0,0 
--------------------$
ERROR(ORPSIM-16144): Value may not be 0
R_R4          10 TC=0,0 
--------------------$
ERROR(ORPSIM-16144): Value may not be 0
R_R5          30 TC=0,0 
--------------------$
ERROR(ORPSIM-16144): Value may not be 0

**** RESUMING test.cir ****
.END
