
**** 10/15/17 11:05:08 ****** PSpice Lite (October 2012) ****** ID# 10813 ****

 ** Profile: "SCHEMATIC1-ex1"  [ D:\VE215\ex3\ex1-PSpiceFiles\SCHEMATIC1\ex1.sim ] 


 ****     CIRCUIT DESCRIPTION


******************************************************************************




** Creating circuit file "ex1.cir" 
** WARNING: THIS AUTOMATICALLY GENERATED FILE MAY BE OVERWRITTEN BY SUBSEQUENT SIMULATIONS

*Libraries: 
* Profile Libraries :
* Local Libraries :
* From [PSPICE NETLIST] section of C:\SPB_Data\cdssetup\OrCAD_PSpice/16.6.0/PSpice.ini file:
.lib "nomd.lib" 

*Analysis directives: 
.TRAN  0 1000ns 0 
.OPTIONS ADVCONV
.PROBE64 V(alias(*)) I(alias(*)) W(alias(*)) D(alias(*)) NOISE(alias(*)) 
.INC "..\SCHEMATIC1.net" 



**** INCLUDING SCHEMATIC1.net ****
* source EX1
I_I1         N00132 N00117 DC 5  
R_R1         N00121 N00117  6 TC=0,0 
R_R2         N00121 N00132  4 TC=0,0 
R_R3         N00132 N00121  6 TC=0,0 

**** RESUMING ex1.cir ****
.END

ERROR(ORPSIM-15142): Node N00132 is floating

ERROR(ORPSIM-15142): Node N00117 is floating

ERROR(ORPSIM-15142): Node N00121 is floating
