
**** 12/11/17 19:24:13 ****** PSpice Lite (October 2012) ****** ID# 10813 ****

 ** Profile: "SCHEMATIC1-84"  [ D:\VE215\ex10\84-PSpiceFiles\SCHEMATIC1\84.sim ] 


 ****     CIRCUIT DESCRIPTION


******************************************************************************




** Creating circuit file "84.cir" 
** WARNING: THIS AUTOMATICALLY GENERATED FILE MAY BE OVERWRITTEN BY SUBSEQUENT SIMULATIONS

*Libraries: 
* Profile Libraries :
* Local Libraries :
* From [PSPICE NETLIST] section of C:\SPB_Data\cdssetup\OrCAD_PSpice/16.6.0/PSpice.ini file:
.lib "nomd.lib" 

*Analysis directives: 
.AC DEC 50 1 1000
.OPTIONS ADVCONV
.PROBE64 V(alias(*)) I(alias(*)) W(alias(*)) D(alias(*)) NOISE(alias(*)) 
.INC "..\SCHEMATIC1.net" 



**** INCLUDING SCHEMATIC1.net ****
* source 84
V_V1         N00123 0 DC 0Vdc AC 1Vac 0
R_R1         N00123 N00130  4k TC=0,0 
C_C1         N00130 N00134  0.000001  TC=0,0 
R_R2         0 N00134  1k TC=0,0 

**** RESUMING 84.cir ****
.END

**** 12/11/17 19:24:13 ****** PSpice Lite (October 2012) ****** ID# 10813 ****

 ** Profile: "SCHEMATIC1-84"  [ D:\VE215\ex10\84-PSpiceFiles\SCHEMATIC1\84.sim ] 


 ****     SMALL SIGNAL BIAS SOLUTION       TEMPERATURE =   27.000 DEG C


******************************************************************************



 NODE   VOLTAGE     NODE   VOLTAGE     NODE   VOLTAGE     NODE   VOLTAGE


(N00123)    0.0000 (N00130)    0.0000 (N00134)    0.0000 




    VOLTAGE SOURCE CURRENTS
    NAME         CURRENT

    V_V1         0.000E+00

    TOTAL POWER DISSIPATION   0.00E+00  WATTS



          JOB CONCLUDED

**** 12/11/17 19:24:13 ****** PSpice Lite (October 2012) ****** ID# 10813 ****

 ** Profile: "SCHEMATIC1-84"  [ D:\VE215\ex10\84-PSpiceFiles\SCHEMATIC1\84.sim ] 


 ****     JOB STATISTICS SUMMARY


******************************************************************************



  Total job time (using Solver 1)   =         .02
