
**** 10/22/17 13:09:53 ****** PSpice Lite (October 2012) ****** ID# 10813 ****

 ** Profile: "SCHEMATIC1-ex2"  [ D:\VE215\ex5\ex2-pspicefiles\schematic1\ex2.sim ] 


 ****     CIRCUIT DESCRIPTION


******************************************************************************




** Creating circuit file "ex2.cir" 
** WARNING: THIS AUTOMATICALLY GENERATED FILE MAY BE OVERWRITTEN BY SUBSEQUENT SIMULATIONS

*Libraries: 
* Profile Libraries :
* Local Libraries :
* From [PSPICE NETLIST] section of C:\SPB_Data\cdssetup\OrCAD_PSpice/16.6.0/PSpice.ini file:
.lib "nomd.lib" 

*Analysis directives: 
.TRAN  0 20 -10 
------------$
ERROR(ORPSIM-16106): Invalid value
.OPTIONS ADVCONV
.PROBE64 V(alias(*)) I(alias(*)) W(alias(*)) D(alias(*)) NOISE(alias(*)) 
.INC "..\SCHEMATIC1.net" 



**** INCLUDING SCHEMATIC1.net ****
* source EX2
R_R1         N00313 N00916  3 TC=0,0 
R_R3         N00327 N00313  6 TC=0,0 
R_R2         N00313 N002750  4 TC=0,0 
V_V1         N00916 0 108
L_L1         N00327 N002750  2 IC=7.714 

**** RESUMING ex2.cir ****
.END
