
**** 10/22/17 13:07:43 ****** PSpice Lite (October 2012) ****** ID# 10813 ****

 ** Profile: "SCHEMATIC1-test"  [ D:\VE215\ex5\ex2-PSpiceFiles\SCHEMATIC1\test.sim ] 


 ****     CIRCUIT DESCRIPTION


******************************************************************************




** Creating circuit file "test.cir" 
** WARNING: THIS AUTOMATICALLY GENERATED FILE MAY BE OVERWRITTEN BY SUBSEQUENT SIMULATIONS

*Libraries: 
* Profile Libraries :
* Local Libraries :
* From [PSPICE NETLIST] section of C:\SPB_Data\cdssetup\OrCAD_PSpice/16.6.0/PSpice.ini file:
.lib "nomd.lib" 

*Analysis directives: 
.TRAN  0 0 20 
.OPTIONS ADVCONV
.PROBE64 V(alias(*)) I(alias(*)) W(alias(*)) D(alias(*)) NOISE(alias(*)) 
.INC "..\SCHEMATIC1.net" 



**** INCLUDING SCHEMATIC1.net ****
* source EX2
R_R1         N00313 N00971  3 TC=0,0 
R_R3         N00327 N00313  6 TC=0,0 
R_R2         N00313 N002750  4 TC=0,0 
V_V1         N00971 0 108
L_L1         N00327 N002750  2 IC=7.714 

**** RESUMING test.cir ****
.END

ERROR(ORPSIM-15413): Transient Stop time 1e-009 s is less than Print Start time 20 s.


ABORTING SIMULATION
**** 10/22/17 13:07:43 ****** PSpice Lite (October 2012) ****** ID# 10813 ****

 ** Profile: "SCHEMATIC1-test"  [ D:\VE215\ex5\ex2-PSpiceFiles\SCHEMATIC1\test.sim ] 


 ****     JOB STATISTICS SUMMARY


******************************************************************************



Node counts:
  Top level (NUNODS)                =           5
  External (NCNODS)                 =           5
  Total (NUMNOD)                    =           5

Total device count (NUMEL)          =           6
  Inductors (L)                     =           1
  Resistors (R)                     =           3
  Voltage Sources (V)               =           1

Number of subcircuits (X)           =           0

Matrix statistics:
  Matrix size (NSTOP)               =           7
  Initial no. elements (NTTAR)      =          17
  No. elements w/ fillin (NTTBR)    =          17
  No. fillins (IFILL)               =           0
  No. overflows (NTTOV)             =           0
  No. LU operations (IOPS)          =           0
  Percent sparsity (PERSPA)         =      65.306

Analysis statistics:
  No. total time points (NUMTTP)    =           0
  No. rejected time points (NUMRTP) =           0
  No. iterations (NUMNIT)           =           0

Load Threads                        =           1

Runtime statistics:                       Seconds      Iterations
  Matrix load                       =        0.00
  Matrix solution                   =        0.00               1
  Readin                            =         .02
  General setup                     =        0.00
  Setup                             =        0.00
  DC sweep                          =        0.00               0
  Bias point                        =        0.00               0
  AC and noise                      =        0.00               0
  Total transient analysis          =        0.00
  Output                            =        0.00
  Overhead                          =        0.00
  Total job time (using Solver 1)   =         .02
